892.852 306.465 13.7394  
10.0 306.465 13.7394 -2.6826047309333285 1.7516912044987687
30.0 306.475 13.7283 -3.2762429354730043 2.257207320979704
50.0 306.494 13.7102 -3.8752538701908015 2.983305819436175
70.0 306.522 13.685 -4.406164072724222 3.9533738156100426
90.0 306.564 13.6484 -4.880254054139685 5.150161530218548
110.0 306.644 13.5816 -5.2653862874312205 6.404476661582499
130.0 306.789 13.4722 -5.430090768987391 7.426185207083211
150.0 306.864 13.4217 -5.4034022222271245 8.056032002288436
170.0 306.927 13.38 -5.2860718361501995 8.445817833958857
190.0 306.99 13.3383 -5.158560688502204 8.719865583838912
210.0 307.043 13.2979 -5.036822160832305 8.924410754251257
230.0 307.095 13.2577 -4.935789226150771 9.105319059472244
250.0 307.128 13.2307 -4.862622523487812 9.288913937838768
270.0 307.149 13.212 -4.806010405340404 9.48453248117593
290.0 307.177 13.1838 -4.732442397736381 9.695278593557864
310.0 307.216 13.1372 -4.598023004164721 9.912885152248203
331.688 307.259 13.0893 -4.401454199922321 10.130954560735082
356.753 307.298 13.0574 -4.1646092105195045 10.36284313469885
385.195 307.343 13.0215 -3.9019363117396204 10.577374323916708
417.013 307.395 12.9827 -3.6339920600143585 10.748465367956145
452.208 307.45 12.9446 -3.354298961518258 10.879657973604061
490.779 307.501 12.9141 -2.9857606057732546 11.008008368856846
532.727 307.553 12.8795 -2.492456667694224 11.157586109063818
578.052 307.625 12.8261 -1.9775606661108702 11.35931599794079
626.753 307.724 12.7608 -1.5507436738901677 11.58576796029693
678.831 307.834 12.6877 -1.1837054861425547 11.827583944573414
734.286 307.942 12.595 -0.7901625169773495 12.042773448135303
793.117 308.051 12.5138 -0.26130094281460914 12.108278201088506
855.325 308.191 12.4273 0.3719126549378359 12.117917499062651
920.909 308.403 12.2755 0.9849621646532707 12.234098314700741
989.87 308.681 12.0777 1.738884119396755 12.331252687330842
1062.21 309.012 11.8039 2.713370782718003 12.354187435449331
1137.92 309.328 11.4652 3.7753564942418714 12.294514897451718
1217.01 309.673 11.0502 4.570272676842078 12.406972443133991
1299.48 310.02 10.5741 5.276718812827133 12.440788147235365
1385.32 310.416 9.98716 6.082461663142398 12.092278893642092
1474.55 310.854 9.41205 6.738115624099614 11.59277196575757
1567.14 311.25 8.9559 7.264452817357689 11.287099965808403
1663.12 311.55 8.53037 7.809448309609895 11.172118985034741
1762.47 311.97 7.84578 8.493630973578302 10.71855933413878
1865.19 312.338 7.29615 9.193722157273204 10.1171744463593
1971.3 312.853 6.70909 9.82980511989226 9.718213008354663
2080.78 313.116 6.2318 10.256335200787309 9.315896859615448
2193.64 313.309 5.9279 10.80371793719466 9.026967258435002
2309.87 313.701 5.41552 11.439610835533095 8.69644743082639
2429.48 314.066 5.03534 11.79039409636095 8.55000906472376
2552.47 314.299 4.9296 12.36312208182592 8.282484474084582
2678.83 314.48 4.72413 12.701294333010276 8.188823954965367
2808.57 314.671 4.57608 13.447737985045713 8.059442138920607
2941.69 314.887 4.41032 14.032123754961601 7.94971832086901
3078.18 315.097 4.24994 14.640021770184545 7.602155366632545
3218.05 315.343 4.0399 15.360539834660944 7.439125127117344
3361.3 315.637 3.98217 16.066643822735614 7.4103804534863125
3507.92 315.81 3.77932 16.744590757924215 7.423040949011923
3657.92 316.142 3.44303 17.28038903751576 7.315849446009591
3811.3 316.684 3.25461 17.84948590771846 7.436869843857725
3968.05 317.238 2.92848 18.70850510804486 7.441603827930028
4128.18 317.801 2.6217 19.61141547623027 7.53892273373074
4291.69 318.391 2.3874 19.752724407218132 7.876809868956632
4458.57 318.86 2.31662 20.588706368397066 7.639342531071532
4628.83 319.408 2.0143 21.738847231545044 7.6827679754250715
4802.47 319.954 1.94449 22.281326563935927 7.194967108593645
4979.48 320.562 1.87345 23.161207074997876 6.662139730553653
5159.87 321.31 1.63014 24.242258028070143 6.6116905197730755
5343.64 321.823 1.60308 25.165757325903126 6.062560839027564
5530.78 322.63 1.46316 26.23643117067875 5.4038713158116565
5721.3 323.279 1.31052 27.254609409062525 5.423000961168879
5915.19 324.128 1.11612 27.799104351730886 5.353076153063747
6112.47 324.849 1.00613 28.462233637561727 5.4601714783015085
6313.12 325.914 0.944724 28.744984845889004 5.185112012483528
6517.14 326.915 0.77252 28.995095451487387 4.78049535905995
6724.55 327.887 0.602893 29.666095178320802 4.594869552256379
6935.33 328.662 0.509564 30.014400262009694 4.531685943581957
7149.48 329.278 0.418299 30.305079625891903 4.100063176525559
7367.01 329.819 0.374555 30.617391302310477 3.601018740210305
7587.92 330.519 0.359266 30.897927754552445 3.4144293512012927
7812.21 331.098 0.324554 31.563170117764994 3.4803114677836864
8039.87 331.638 0.302485 31.951593707370073 3.1761103922279044
8270.91 332.386 0.267165 32.401261410698844 2.8841239807412897
8505.32 333.074 0.251879 33.01226553051779 2.427967974292938
8743.12 333.424 0.23437 33.66706146119067 1.9578351894027344
8984.29 333.976 0.157183 34.064757564751154 1.6147347164600967
9228.83 334.627 0.130234 34.76960062793342 0.7810678101714775
9476.75 335.395 0.125693 36.087762415117176 0.6526507452067982
9728.05 336.025 0.117153 37.37888471245364 1.3787995501488004
9982.73 336.849 0.0999141 36.92140378631289 1.7748448179439722
10240.8 337.736 0.0837148 36.28051014778359 2.1266607261060337
10502.2 338.613 0.0729608 35.75081127210608 2.1559617442090575
10767.0 340.986 0.0696476 37.118974314850334 0.7556852507775336
11035.2 342.665 0.0595883 37.34567804408188 2.18873813823371
11306.8 342.665 0.0392409 37.778761744237705 2.4078004089656466
11581.7 342.665 0.0246646 37.86240659433535 2.446690598550077
11860.0 342.665 0.0148897 37.85808148266478 2.4604113524690927
12140.0 344.465 0.0100004 37.82484394851941 2.4258625858305893
12420.0 350.065 0.0100006 37.83682392630793 2.4468520922897428
12700.0 355.665 0.01 37.84450481107874 2.489204774376656
12980.0 361.265 0.0100004 37.82304935802697 2.4726601714588936
13260.0 366.865 0.0100003 37.812549667533055 2.466345883228182
13540.0 372.465 0.0100002 37.82941947766876 2.4917950530656867
13820.0 378.065 0.0100003 37.82690611378585 2.472374537208061
14100.0 383.665 0.01 37.8017882315094 2.398230239315649
14380.0 389.265 0.0100002 37.790789719954184 2.3685214601555185
14660.0 394.865 0.0100001 37.8160402597353 2.419421418636593
14940.0 400.465 0.0100001 37.84123405778594 2.508510341210434
15220.0 406.065 0.0100001 37.86355604621637 2.5469225357528846
15500.0 411.665 0.01 37.877022534356456 2.5473071100203013
15780.0 417.265 0.0100001 37.88048294367516 2.540308521622076
16060.0 422.865 0.01 37.88089661283306 2.5330747673526495
16340.0 428.465 0.01 37.879360653127826 2.527610566313489
16620.0 434.065 0.01 37.87740888788121 2.524715268539538
16900.0 439.665 0.01 37.87580928111877 2.523493718880802
17180.0 445.265 0.00999997 37.87460099479493 2.5228288768338447
17460.0 450.865 0.00999999 37.87373818866867 2.5224215276284663
17740.0 456.465 0.00999998 37.87320824672149 2.5221912106986544
18020.0 462.065 0.00999994 37.873016261036405 2.522100704248986
